ipss.plugin.py/tests/testData/psse/IEEE9Bus/ieee9.raw
0,    100.00, 30 / PSS(tm)E-30 RAW created by rawd30  SUN, OCT 07 2012  11:29
 00/00/01                      100.0  0    0
 0
     1,'BUS-1       ',  16.5000,3,     0.000,     0.000,   1,   1,1.04000,   0.0000,   1
     2,'BUS-2       ',  18.0000,2,     0.000,     0.000,   1,   1,1.02500,   9.2800,   1
     3,'BUS-3       ',  13.8000,2,     0.000,     0.000,   1,   1,1.02500,   4.6600,   1
     4,'BUS-4       ', 230.0000,1,     0.000,     0.000,   1,   1,1.02500,  -2.2200,   1
     5,'BUS-5       ', 230.0000,1,     0.000,     0.000,   1,   1,0.99500,  -3.9900,   1
     6,'BUS-6       ', 230.0000,1,     0.000,     0.000,   1,   1,1.01200,  -3.6900,   1
     7,'BUS-7       ', 230.0000,1,     0.000,     0.000,   1,   1,1.02500,   3.7200,   1
     8,'BUS-8       ', 230.0000,1,     0.000,     0.000,   1,   1,1.01500,   0.7300,   1
     9,'BUS-9       ', 230.0000,1,     0.000,     0.000,   1,   1,1.03200,   1.9700,   1
 0 / END OF BUS DATA, BEGIN LOAD DATA
     5,'1 ',1,   1,   1,   125.000,    50.000,     0.000,     0.000,     0.000,     0.000,   1
     6,'1 ',1,   1,   1,    90.000,    30.000,     0.000,     0.000,     0.000,     0.000,   1
     8,'1 ',1,   1,   1,   100.000,    35.000,     0.000,     0.000,     0.000,     0.000,   1
 0 / END OF LOAD DATA, BEGIN GENERATOR DATA
     1,'1 ',    71.640,    27.050,  9999.000, -9999.000,1.04000,     0,   100.000,   0.00000,   0.04,   0.00000,   0.00000,1.00000,1,  100.0,  9999.000, -9999.000,   1,1.0000,   0,0.0000,   0,0.0000,   0,0.0000
     2,'1 ',   163.000,     6.650,  9999.000, -9999.000,1.02500,     0,   100.000,   0.00000,   0.089,   0.00000,   0.00000,1.00000,1,  100.0,  9999.000, -9999.000,   1,1.0000,   0,0.0000,   0,0.0000,   0,0.0000
     3,'1 ',    85.000,   -10.860, 99990.000,-99990.000,1.02500,     0,   100.000,   0.00000,   0.107,   0.00000,   0.00000,1.00000,1,  100.0,  9999.000, -9999.000,   1,1.0000,   0,0.0000,   0,0.0000,   0,0.0000
 0 / END OF GENERATOR DATA, BEGIN NON-TRANSFORMER BRANCH DATA
     7,      8,'0 ',   0.00850,   0.07200,   0.14900,    0.00,    0.00,    0.00,  0.00000,  0.00000,  0.00000,  0.00000,1,   0.00,   1,1.0000,   0,0.0000,   0,0.0000,   0,0.0000
     8,     -9,'0 ',   0.01190,   0.10080,   0.20900,    0.00,    0.00,    0.00,  0.00000,  0.00000,  0.00000,  0.00000,1,   0.00,   1,1.0000,   0,0.0000,   0,0.0000,   0,0.0000
     5,     -7,'0 ',   0.03200,   0.16100,   0.30600,    0.00,    0.00,    0.00,  0.00000,  0.00000,  0.00000,  0.00000,1,   0.00,   1,1.0000,   0,0.0000,   0,0.0000,   0,0.0000
     6,     -9,'0 ',   0.03900,   0.17000,   0.35800,    0.00,    0.00,    0.00,  0.00000,  0.00000,  0.00000,  0.00000,1,   0.00,   1,1.0000,   0,0.0000,   0,0.0000,   0,0.0000
     4,     -5,'0 ',   0.01000,   0.08500,   0.17600,    0.00,    0.00,    0.00,  0.00000,  0.00000,  0.00000,  0.00000,1,   0.00,   1,1.0000,   0,0.0000,   0,0.0000,   0,0.0000
     4,     -6,'0 ',   0.01700,   0.09200,   0.15800,    0.00,    0.00,    0.00,  0.00000,  0.00000,  0.00000,  0.00000,1,   0.00,   1,1.0000,   0,0.0000,   0,0.0000,   0,0.0000
 0 / END OF NON-TRANSFORMER BRANCH DATA, BEGIN TRANSFORMER DATA
   1,  4,  0,  '1',  1,  1,  1,  0,  0,  2,  'Gen1_to_Bus1_cirId_1',  1,  1,  1.0,  0,  0.0,  0,  0.0,  0,  0.0
0.0000,  0.0567,  100.0
1.0000,  16.5,  0.0,  0.0,  0.0,  0.0,  0,  0,  1.1,  0.9,  1.1,  0.9,  33,  0,  0.0,  0.0
1.0,  230.0,  
   2,  7,  0,  '1',  1,  1,  1,  0,  0,  2,  'Gen2_to_Bus2_cirId_1',  1,  1,  1.0,  0,  0.0,  0,  0.0,  0,  0.0
0.0000,  0.0625,  100.0
1.0000,  18.0,  0.0,  0.0,  0.0,  0.0,  0,  0,  1.1,  0.9,  1.1,  0.9,  33,  0,  0.0,  0.0
1.0,  230.0,  
   3,  9,  0,  '1',  1,  1,  1,  0,  0,  2,  'Gen3_to_Bus3_cirId_1',  1,  1,  1.0,  0,  0.0,  0,  0.0,  0,  0.0
0.0000,  0.0586,  100.0
1.0000,  13.8,  0.0,  0.0,  0.0,  0.0,  0,  0,  1.1,  0.9,  1.1,  0.9,  33,  0,  0.0,  0.0
1.0,  230.0,
 0 / END OF TRANSFORMER DATA, BEGIN AREA INTERCHANGE DATA
 0 / END OF AREA INTERCHANGE DATA, BEGIN TWO-TERMINAL DC DATA
 0 / END OF TWO-TERMINAL DC DATA, BEGIN VSC DC LINE DATA
 0 / END OF VSC DC LINE DATA, BEGIN SWITCHED SHUNT DATA
 0 / END OF SWITCHED SHUNT DATA, BEGIN TRANS. IMP. CORR. TABLE DATA
 0 / END OF TRANS. IMP. CORR. TABLE DATA, BEGIN MULTI-TERMINAL DC LINE DATA
 0 / END OF MULTI-TERMINAL DC LINE DATA, BEGIN MULTI-SECTION LINE DATA
 0 / END OF MULTI-SECTION LINE DATA, BEGIN ZONE DATA
 0 / END OF ZONE DATA, BEGIN INTERAREA TRANSFER DATA
 0 / END OF INTERAREA TRANSFER DATA, BEGIN OWNER DATA
 0 / END OF OWNER DATA, BEGIN FACTS DEVICE DATA
 0 / END OF FACTS DEVICE DATA, END OF CASE DATA
